********************************************************************************
* Library          : Lab67
* Cell             : halfadder
* View             : schematic
* View Search List : auCdl schematic symbol
* View Stop List   : auCdl
********************************************************************************
.subckt halfadder C S X Y
*.PININFO C:O S:O X:I Y:I
XI0 X Y S XOR
XI1 X Y C AND
.ends halfadder

